<additional xmlns:xsi="http://www.w3.org/2001/XMLSchema-instance" xsi:noNamespaceSchemaLocation="http://sumo.dlr.de/xsd/additional_file.xsd">
    <laneAreaDetector file="crosse2output.xml" freq="60" friendlyPos="x" id="e2det_1i_0" lane="1i_0" length="250" pos="245.15"/>
    <laneAreaDetector file="crosse2output.xml" freq="60" friendlyPos="x" id="e2det_2i_0" lane="2i_0" length="250" pos="245.15"/>
    <laneAreaDetector file="crosse2output.xml" freq="60" friendlyPos="x" id="e2det_3i_0" lane="3i_0" length="250" pos="245.15"/>
    <laneAreaDetector file="crosse2output.xml" freq="60" friendlyPos="x" id="e2det_4i_0" lane="4i_0" length="250" pos="245.15"/>

    <e3Detector id="e3_0_1i" freq="60" file="crosse3output.xml">
        <detEntry lane="1i_0" pos="245.25"/>
        <detExit lane="1i_0" pos="-.1"/>
    </e3Detector>
    <e3Detector id="e3_0_2i" freq="60" file="crosse3output.xml">
        <detEntry lane="2i_0" pos="245.25"/>
        <detExit lane="2i_0" pos="-.1"/>
    </e3Detector>
    <e3Detector id="e3_0_3i" freq="60" file="crosse3output.xml">
        <detEntry lane="3i_0" pos="245.25"/>
        <detExit lane="3i_0" pos="-.1"/>
    </e3Detector>
    <e3Detector id="e3_0_4i" freq="60" file="crosse3output.xml">
        <detEntry lane="4i_0" pos="245.25"/>
        <detExit lane="4i_0" pos="-.1"/>
    </e3Detector>
</additional>
