<?xml version="1.0" encoding="UTF-8"?>

<!-- generated on 2022-08-18 16:00:49 by Eclipse SUMO GUI Version 1.14.1
-->

<configuration xmlns:xsi="http://www.w3.org/2001/XMLSchema-instance" xsi:noNamespaceSchemaLocation="http://sumo.dlr.de/xsd/sumoConfiguration.xsd">

    <input>
        <net-file value="cross.net.xml"/>
        <route-files value="cross.rou.xml"/>
        <junction-taz value="true"/>
    </input>

</configuration>
