<?xml version="1.0" encoding="UTF-8"?>

<!-- generated on 2022-08-19 14:46:10 by Eclipse SUMO netedit Version 1.14.1
-->

<routes xmlns:xsi="http://www.w3.org/2001/XMLSchema-instance" xsi:noNamespaceSchemaLocation="http://sumo.dlr.de/xsd/routes_file.xsd">
    <!-- Vehicles, persons and containers (sorted by depart) -->
    <flow id="f_0" begin="0.00" color="magenta" fromJunction="J0" toJunction="J2" end="3600.00" probability="0.50"/>
    <flow id="f_1" begin="0.00" color="blue" fromJunction="J0" toJunction="J5" end="3600.00" number="1800"/>
    <flow id="f_10" begin="0.00" color="0,255,103" fromJunction="J5" toJunction="J7" end="3600.00" number="1800"/>
    <flow id="f_11" begin="0.00" color="0,255,103" fromJunction="J7" toJunction="J2" end="3600.00" number="1800"/>
    <flow id="f_12" begin="0.00" color="0,255,103" fromJunction="J2" toJunction="J4" end="3600.00" number="1800"/>
    <flow id="f_13" begin="0.00" color="0,255,103" fromJunction="J4" toJunction="J7" end="3600.00" number="1800"/>
    <flow id="f_14" begin="0.00" color="0,255,103" fromJunction="J4" toJunction="J3" end="3600.00" number="1800"/>
    <flow id="f_15" begin="0.00" color="0,255,103" fromJunction="J4" toJunction="J5" end="3600.00" number="1800"/>
    <flow id="f_2" begin="0.00" color="blue" fromJunction="J5" toJunction="J4" end="3600.00" number="1800"/>
    <flow id="f_3" begin="0.00" color="blue" fromJunction="J8" toJunction="J7" end="3600.00" number="1800"/>
    <flow id="f_4" begin="0.00" color="blue" fromJunction="J3" toJunction="J2" end="3600.00" number="1800"/>
    <flow id="f_5" begin="0.00" color="blue" fromJunction="J6" toJunction="J2" end="3600.00" number="1800"/>
    <flow id="f_6" begin="0.00" color="0,255,103" fromJunction="J6" toJunction="J7" end="3600.00" number="1800"/>
    <flow id="f_7" begin="0.00" color="0,255,103" fromJunction="J6" toJunction="J3" end="3600.00" number="1800"/>
    <flow id="f_8" begin="0.00" color="0,255,103" fromJunction="J3" toJunction="J0" end="3600.00" number="1800"/>
    <flow id="f_9" begin="0.00" color="0,255,103" fromJunction="J5" toJunction="J0" end="3600.00" number="1800"/>
</routes>
