<?xml version="1.0" encoding="UTF-8"?>

<!-- generated on 2022-08-19 14:46:10 by Eclipse SUMO netedit Version 1.14.1
<configuration xmlns:xsi="http://www.w3.org/2001/XMLSchema-instance" xsi:noNamespaceSchemaLocation="http://sumo.dlr.de/xsd/netconvertConfiguration.xsd">

    <input>
        <sumo-net-file value="D:\Document\CodeFile\python\WebsterTimingMethod\Resource\MAP\demo\cross_web.net.xml"/>
    </input>

    <output>
        <output-file value="D:\Document\CodeFile\python\WebsterTimingMethod\Resource\MAP\demo\cross_web.net.xml"/>
    </output>

    <processing>
        <geometry.min-radius.fix.railways value="false"/>
        <geometry.max-grade.fix value="false"/>
        <offset.disable-normalization value="true"/>
        <lefthand value="false"/>
    </processing>

    <junctions>
        <no-turnarounds value="true"/>
        <junctions.corner-detail value="5"/>
        <junctions.limit-turn-speed value="5.5"/>
        <rectangular-lane-cut value="false"/>
    </junctions>

    <pedestrian>
        <walkingareas value="false"/>
    </pedestrian>

    <netedit>
        <route-files value="D:\Document\CodeFile\python\WebsterTimingMethod\Resource\MAP\demo\cross_web.rou.xml"/>
    </netedit>

</configuration>
-->

<net version="1.9" junctionCornerDetail="5" limitTurnSpeed="5.50" xmlns:xsi="http://www.w3.org/2001/XMLSchema-instance" xsi:noNamespaceSchemaLocation="http://sumo.dlr.de/xsd/net_file.xsd">

    <location netOffset="0.00,0.00" convBoundary="-100.00,-100.00,100.00,100.00" origBoundary="-10000000000.00,-10000000000.00,10000000000.00,10000000000.00" projParameter="!"/>

    <edge id=":J1_0" function="internal">
        <lane id=":J1_0_0" index="0" speed="7.42" length="19.31" shape="-1.60,19.45 -2.29,13.32 -4.36,10.52 -7.80,11.04 -12.62,14.89"/>
    </edge>
    <edge id=":J1_1" function="internal">
        <lane id=":J1_1_0" index="0" speed="11.20" length="28.79" shape="-1.60,19.45 -2.72,11.64 -6.06,6.06 -11.64,2.72 -19.45,1.60"/>
    </edge>
    <edge id=":J1_2" function="internal">
        <lane id=":J1_2_0" index="0" speed="13.89" length="35.63" shape="-1.60,19.45 -2.43,10.40 -4.92,2.04 -9.07,-5.64 -14.89,-12.62"/>
    </edge>
    <edge id=":J1_3" function="internal">
        <lane id=":J1_3_0" index="0" speed="13.89" length="38.90" shape="-1.60,19.45 -1.60,-19.45"/>
    </edge>
    <edge id=":J1_4" function="internal">
        <lane id=":J1_4_0" index="0" speed="13.89" length="7.70" shape="-1.60,19.45 -0.90,11.78"/>
    </edge>
    <edge id=":J1_5" function="internal">
        <lane id=":J1_5_0" index="0" speed="12.13" length="5.01" shape="-1.60,19.45 -0.89,14.49"/>
    </edge>
    <edge id=":J1_6" function="internal">
        <lane id=":J1_6_0" index="0" speed="8.14" length="2.95" shape="-1.60,19.45 -0.87,16.60"/>
    </edge>
    <edge id=":J1_56" function="internal">
        <lane id=":J1_56_0" index="0" speed="13.89" length="30.44" shape="-0.90,11.78 -0.71,9.76 1.96,0.81 6.40,-7.41 12.62,-14.89"/>
    </edge>
    <edge id=":J1_57" function="internal">
        <lane id=":J1_57_0" index="0" speed="12.13" length="28.94" shape="-0.89,14.49 -0.28,10.24 3.66,3.66 10.24,-0.28 19.45,-1.60"/>
    </edge>
    <edge id=":J1_58" function="internal">
        <lane id=":J1_58_0" index="0" speed="8.14" length="20.62" shape="-0.87,16.60 -0.01,13.22 4.01,9.69 9.35,9.34 14.89,12.62"/>
    </edge>
    <edge id=":J1_7" function="internal">
        <lane id=":J1_7_0" index="0" speed="7.42" length="19.31" shape="12.62,14.89 7.80,11.04 4.36,10.52 2.29,13.32 1.60,19.45"/>
    </edge>
    <edge id=":J1_8" function="internal">
        <lane id=":J1_8_0" index="0" speed="11.20" length="28.79" shape="12.62,14.89 6.31,10.15 0.00,8.57 -6.31,10.15 -12.62,14.89"/>
    </edge>
    <edge id=":J1_9" function="internal">
        <lane id=":J1_9_0" index="0" speed="13.89" length="35.63" shape="12.62,14.89 5.64,9.07 -2.04,4.92 -10.40,2.43 -19.45,1.60"/>
    </edge>
    <edge id=":J1_10" function="internal">
        <lane id=":J1_10_0" index="0" speed="13.89" length="38.90" shape="12.62,14.89 -14.89,-12.62"/>
    </edge>
    <edge id=":J1_11" function="internal">
        <lane id=":J1_11_0" index="0" speed="13.89" length="38.14" shape="12.62,14.89 6.40,7.41 1.96,-0.81 -0.71,-9.76 -1.60,-19.45"/>
    </edge>
    <edge id=":J1_12" function="internal">
        <lane id=":J1_12_0" index="0" speed="12.13" length="33.95" shape="12.62,14.89 7.04,7.44 5.18,0.00 7.04,-7.44 12.62,-14.89"/>
    </edge>
    <edge id=":J1_13" function="internal">
        <lane id=":J1_13_0" index="0" speed="8.14" length="23.57" shape="12.62,14.89 9.34,9.35 9.69,4.01 13.22,-0.01 19.45,-1.60"/>
    </edge>
    <edge id=":J1_14" function="internal">
        <lane id=":J1_14_0" index="0" speed="7.42" length="19.31" shape="19.45,1.60 13.32,2.29 10.52,4.36 11.04,7.80 14.89,12.62"/>
    </edge>
    <edge id=":J1_15" function="internal">
        <lane id=":J1_15_0" index="0" speed="11.20" length="28.79" shape="19.45,1.60 11.64,2.72 6.06,6.06 2.72,11.64 1.60,19.45"/>
    </edge>
    <edge id=":J1_16" function="internal">
        <lane id=":J1_16_0" index="0" speed="13.89" length="35.63" shape="19.45,1.60 10.40,2.43 2.04,4.92 -5.64,9.07 -12.62,14.89"/>
    </edge>
    <edge id=":J1_17" function="internal">
        <lane id=":J1_17_0" index="0" speed="13.89" length="38.90" shape="19.45,1.60 -19.45,1.60"/>
    </edge>
    <edge id=":J1_18" function="internal">
        <lane id=":J1_18_0" index="0" speed="13.89" length="38.14" shape="19.45,1.60 9.76,0.71 0.81,-1.96 -7.41,-6.40 -14.89,-12.62"/>
    </edge>
    <edge id=":J1_19" function="internal">
        <lane id=":J1_19_0" index="0" speed="12.13" length="33.95" shape="19.45,1.60 10.24,0.28 3.66,-3.66 -0.28,-10.24 -1.60,-19.45"/>
    </edge>
    <edge id=":J1_20" function="internal">
        <lane id=":J1_20_0" index="0" speed="8.14" length="23.57" shape="19.45,1.60 13.22,0.01 9.69,-4.01 9.34,-9.35 12.62,-14.89"/>
    </edge>
    <edge id=":J1_21" function="internal">
        <lane id=":J1_21_0" index="0" speed="7.42" length="19.31" shape="14.89,-12.62 11.04,-7.80 10.52,-4.36 13.32,-2.29 19.45,-1.60"/>
    </edge>
    <edge id=":J1_22" function="internal">
        <lane id=":J1_22_0" index="0" speed="11.20" length="28.79" shape="14.89,-12.62 10.15,-6.31 8.57,-0.00 10.15,6.31 14.89,12.62"/>
    </edge>
    <edge id=":J1_23" function="internal">
        <lane id=":J1_23_0" index="0" speed="13.89" length="35.63" shape="14.89,-12.62 9.07,-5.64 4.92,2.04 2.43,10.40 1.60,19.45"/>
    </edge>
    <edge id=":J1_24" function="internal">
        <lane id=":J1_24_0" index="0" speed="13.89" length="38.90" shape="14.89,-12.62 -12.62,14.89"/>
    </edge>
    <edge id=":J1_25" function="internal">
        <lane id=":J1_25_0" index="0" speed="13.89" length="38.14" shape="14.89,-12.62 7.41,-6.40 -0.81,-1.96 -9.76,0.71 -19.45,1.60"/>
    </edge>
    <edge id=":J1_26" function="internal">
        <lane id=":J1_26_0" index="0" speed="12.13" length="33.95" shape="14.89,-12.62 7.44,-7.04 0.00,-5.18 -7.44,-7.04 -14.89,-12.62"/>
    </edge>
    <edge id=":J1_27" function="internal">
        <lane id=":J1_27_0" index="0" speed="8.14" length="23.57" shape="14.89,-12.62 9.35,-9.34 4.01,-9.69 -0.01,-13.22 -1.60,-19.45"/>
    </edge>
    <edge id=":J1_28" function="internal">
        <lane id=":J1_28_0" index="0" speed="7.42" length="19.31" shape="1.60,-19.45 2.29,-13.32 4.36,-10.52 7.80,-11.04 12.62,-14.89"/>
    </edge>
    <edge id=":J1_29" function="internal">
        <lane id=":J1_29_0" index="0" speed="11.20" length="28.79" shape="1.60,-19.45 2.72,-11.64 6.06,-6.06 11.64,-2.72 19.45,-1.60"/>
    </edge>
    <edge id=":J1_30" function="internal">
        <lane id=":J1_30_0" index="0" speed="13.89" length="35.34" shape="1.60,-19.45 2.68,-11.22 5.59,-2.32 9.83,6.03 14.89,12.62"/>
    </edge>
    <edge id=":J1_31" function="internal">
        <lane id=":J1_31_0" index="0" speed="13.89" length="38.90" shape="1.60,-19.45 1.60,19.45"/>
    </edge>
    <edge id=":J1_32" function="internal">
        <lane id=":J1_32_0" index="0" speed="13.89" length="7.70" shape="1.60,-19.45 0.90,-11.78"/>
    </edge>
    <edge id=":J1_33" function="internal">
        <lane id=":J1_33_0" index="0" speed="12.13" length="5.01" shape="1.60,-19.45 0.89,-14.49"/>
    </edge>
    <edge id=":J1_34" function="internal">
        <lane id=":J1_34_0" index="0" speed="8.14" length="2.95" shape="1.60,-19.45 0.87,-16.60"/>
    </edge>
    <edge id=":J1_59" function="internal">
        <lane id=":J1_59_0" index="0" speed="13.89" length="30.44" shape="0.90,-11.78 0.71,-9.76 -1.96,-0.81 -6.40,7.41 -12.62,14.89"/>
    </edge>
    <edge id=":J1_60" function="internal">
        <lane id=":J1_60_0" index="0" speed="12.13" length="28.94" shape="0.89,-14.49 0.28,-10.24 -3.66,-3.66 -10.24,0.28 -19.45,1.60"/>
    </edge>
    <edge id=":J1_61" function="internal">
        <lane id=":J1_61_0" index="0" speed="8.14" length="20.62" shape="0.87,-16.60 0.01,-13.22 -4.01,-9.69 -9.35,-9.34 -14.89,-12.62"/>
    </edge>
    <edge id=":J1_35" function="internal">
        <lane id=":J1_35_0" index="0" speed="7.42" length="19.31" shape="-12.62,-14.89 -7.80,-11.04 -4.36,-10.52 -2.29,-13.32 -1.60,-19.45"/>
    </edge>
    <edge id=":J1_36" function="internal">
        <lane id=":J1_36_0" index="0" speed="11.20" length="28.79" shape="-12.62,-14.89 -6.31,-10.15 -0.00,-8.57 6.31,-10.15 12.62,-14.89"/>
    </edge>
    <edge id=":J1_37" function="internal">
        <lane id=":J1_37_0" index="0" speed="13.89" length="35.63" shape="-12.62,-14.89 -5.64,-9.07 2.04,-4.92 10.40,-2.43 19.45,-1.60"/>
    </edge>
    <edge id=":J1_38" function="internal">
        <lane id=":J1_38_0" index="0" speed="13.89" length="38.90" shape="-12.62,-14.89 14.89,12.62"/>
    </edge>
    <edge id=":J1_39" function="internal">
        <lane id=":J1_39_0" index="0" speed="13.89" length="38.14" shape="-12.62,-14.89 -6.40,-7.41 -1.96,0.81 0.71,9.76 1.60,19.45"/>
    </edge>
    <edge id=":J1_40" function="internal">
        <lane id=":J1_40_0" index="0" speed="12.13" length="33.95" shape="-12.62,-14.89 -7.04,-7.44 -5.18,-0.00 -7.04,7.44 -12.62,14.89"/>
    </edge>
    <edge id=":J1_41" function="internal">
        <lane id=":J1_41_0" index="0" speed="8.14" length="23.57" shape="-12.62,-14.89 -9.34,-9.35 -9.69,-4.01 -13.22,0.01 -19.45,1.60"/>
    </edge>
    <edge id=":J1_42" function="internal">
        <lane id=":J1_42_0" index="0" speed="7.42" length="19.31" shape="-19.45,-1.60 -13.32,-2.29 -10.52,-4.36 -11.04,-7.80 -14.89,-12.62"/>
    </edge>
    <edge id=":J1_43" function="internal">
        <lane id=":J1_43_0" index="0" speed="11.20" length="28.79" shape="-19.45,-1.60 -11.64,-2.72 -6.06,-6.06 -2.72,-11.64 -1.60,-19.45"/>
    </edge>
    <edge id=":J1_44" function="internal">
        <lane id=":J1_44_0" index="0" speed="13.89" length="35.34" shape="-19.45,-1.60 -11.22,-2.68 -2.32,-5.59 6.03,-9.83 12.62,-14.89"/>
    </edge>
    <edge id=":J1_45" function="internal">
        <lane id=":J1_45_0" index="0" speed="13.89" length="38.90" shape="-19.45,-1.60 19.45,-1.60"/>
    </edge>
    <edge id=":J1_46" function="internal">
        <lane id=":J1_46_0" index="0" speed="13.89" length="38.14" shape="-19.45,-1.60 -9.76,-0.71 -0.81,1.96 7.41,6.40 14.89,12.62"/>
    </edge>
    <edge id=":J1_47" function="internal">
        <lane id=":J1_47_0" index="0" speed="12.13" length="33.95" shape="-19.45,-1.60 -10.24,-0.28 -3.66,3.66 0.28,10.24 1.60,19.45"/>
    </edge>
    <edge id=":J1_48" function="internal">
        <lane id=":J1_48_0" index="0" speed="8.14" length="23.57" shape="-19.45,-1.60 -13.22,-0.01 -9.69,4.01 -9.34,9.35 -12.62,14.89"/>
    </edge>
    <edge id=":J1_49" function="internal">
        <lane id=":J1_49_0" index="0" speed="7.42" length="19.31" shape="-14.89,12.62 -11.04,7.80 -10.52,4.36 -13.32,2.29 -19.45,1.60"/>
    </edge>
    <edge id=":J1_50" function="internal">
        <lane id=":J1_50_0" index="0" speed="11.20" length="28.79" shape="-14.89,12.62 -10.15,6.31 -8.57,0.00 -10.15,-6.31 -14.89,-12.62"/>
    </edge>
    <edge id=":J1_51" function="internal">
        <lane id=":J1_51_0" index="0" speed="13.89" length="35.63" shape="-14.89,12.62 -9.07,5.64 -4.92,-2.04 -2.43,-10.40 -1.60,-19.45"/>
    </edge>
    <edge id=":J1_52" function="internal">
        <lane id=":J1_52_0" index="0" speed="13.89" length="38.90" shape="-14.89,12.62 12.62,-14.89"/>
    </edge>
    <edge id=":J1_53" function="internal">
        <lane id=":J1_53_0" index="0" speed="13.89" length="38.14" shape="-14.89,12.62 -7.41,6.40 0.81,1.96 9.76,-0.71 19.45,-1.60"/>
    </edge>
    <edge id=":J1_54" function="internal">
        <lane id=":J1_54_0" index="0" speed="12.13" length="33.95" shape="-14.89,12.62 -7.44,7.04 -0.00,5.18 7.44,7.04 14.89,12.62"/>
    </edge>
    <edge id=":J1_55" function="internal">
        <lane id=":J1_55_0" index="0" speed="8.14" length="23.57" shape="-14.89,12.62 -9.35,9.34 -4.01,9.69 0.01,13.22 1.60,19.45"/>
    </edge>

    <edge id="-E0" from="J1" to="J0" priority="-1">
        <lane id="-E0_0" index="0" speed="13.89" length="80.55" shape="4.80,19.45 4.80,100.00"/>
        <lane id="-E0_1" index="1" speed="13.89" length="80.55" shape="1.60,19.45 1.60,100.00"/>
    </edge>
    <edge id="-E1" from="J2" to="J1" priority="-1">
        <lane id="-E1_0" index="0" speed="13.89" length="93.69" shape="-76.61,-83.39 -10.36,-17.15"/>
        <lane id="-E1_1" index="1" speed="13.89" length="93.69" shape="-78.87,-81.13 -12.62,-14.89"/>
    </edge>
    <edge id="-E2" from="J3" to="J1" priority="-1">
        <lane id="-E2_0" index="0" speed="13.89" length="93.69" shape="76.61,83.39 10.36,17.15"/>
        <lane id="-E2_1" index="1" speed="13.89" length="93.69" shape="78.87,81.13 12.62,14.89"/>
    </edge>
    <edge id="-E3" from="J4" to="J1" priority="-1">
        <lane id="-E3_0" index="0" speed="13.89" length="93.69" shape="83.39,-76.61 17.15,-10.36"/>
        <lane id="-E3_1" index="1" speed="13.89" length="93.69" shape="81.13,-78.87 14.89,-12.62"/>
    </edge>
    <edge id="-E4" from="J5" to="J1" priority="-1">
        <lane id="-E4_0" index="0" speed="13.89" length="93.69" shape="-83.39,76.61 -17.15,10.36"/>
        <lane id="-E4_1" index="1" speed="13.89" length="93.69" shape="-81.13,78.87 -14.89,12.62"/>
    </edge>
    <edge id="-E5" from="J6" to="J1" priority="-1">
        <lane id="-E5_0" index="0" speed="13.89" length="80.55" shape="-100.00,-4.80 -19.45,-4.80"/>
        <lane id="-E5_1" index="1" speed="13.89" length="80.55" shape="-100.00,-1.60 -19.45,-1.60"/>
    </edge>
    <edge id="-E6" from="J7" to="J1" priority="-1">
        <lane id="-E6_0" index="0" speed="13.89" length="80.55" shape="4.80,-100.00 4.80,-19.45"/>
        <lane id="-E6_1" index="1" speed="13.89" length="80.55" shape="1.60,-100.00 1.60,-19.45"/>
    </edge>
    <edge id="-E7" from="J8" to="J1" priority="-1">
        <lane id="-E7_0" index="0" speed="13.89" length="80.55" shape="100.00,4.80 19.45,4.80"/>
        <lane id="-E7_1" index="1" speed="13.89" length="80.55" shape="100.00,1.60 19.45,1.60"/>
    </edge>
    <edge id="E0" from="J0" to="J1" priority="-1">
        <lane id="E0_0" index="0" speed="13.89" length="80.55" shape="-4.80,100.00 -4.80,19.45"/>
        <lane id="E0_1" index="1" speed="13.89" length="80.55" shape="-1.60,100.00 -1.60,19.45"/>
    </edge>
    <edge id="E1" from="J1" to="J2" priority="-1">
        <lane id="E1_0" index="0" speed="13.89" length="93.69" shape="-17.15,-10.36 -83.39,-76.61"/>
        <lane id="E1_1" index="1" speed="13.89" length="93.69" shape="-14.89,-12.62 -81.13,-78.87"/>
    </edge>
    <edge id="E2" from="J1" to="J3" priority="-1">
        <lane id="E2_0" index="0" speed="13.89" length="93.69" shape="17.15,10.36 83.39,76.61"/>
        <lane id="E2_1" index="1" speed="13.89" length="93.69" shape="14.89,12.62 81.13,78.87"/>
    </edge>
    <edge id="E3" from="J1" to="J4" priority="-1">
        <lane id="E3_0" index="0" speed="13.89" length="93.69" shape="10.36,-17.15 76.61,-83.39"/>
        <lane id="E3_1" index="1" speed="13.89" length="93.69" shape="12.62,-14.89 78.87,-81.13"/>
    </edge>
    <edge id="E4" from="J1" to="J5" priority="-1">
        <lane id="E4_0" index="0" speed="13.89" length="93.69" shape="-10.36,17.15 -76.61,83.39"/>
        <lane id="E4_1" index="1" speed="13.89" length="93.69" shape="-12.62,14.89 -78.87,81.13"/>
    </edge>
    <edge id="E5" from="J1" to="J6" priority="-1">
        <lane id="E5_0" index="0" speed="13.89" length="80.55" shape="-19.45,4.80 -100.00,4.80"/>
        <lane id="E5_1" index="1" speed="13.89" length="80.55" shape="-19.45,1.60 -100.00,1.60"/>
    </edge>
    <edge id="E6" from="J1" to="J7" priority="-1">
        <lane id="E6_0" index="0" speed="13.89" length="80.55" shape="-4.80,-19.45 -4.80,-100.00"/>
        <lane id="E6_1" index="1" speed="13.89" length="80.55" shape="-1.60,-19.45 -1.60,-100.00"/>
    </edge>
    <edge id="E7" from="J1" to="J8" priority="-1">
        <lane id="E7_0" index="0" speed="13.89" length="80.55" shape="19.45,-4.80 100.00,-4.80"/>
        <lane id="E7_1" index="1" speed="13.89" length="80.55" shape="19.45,-1.60 100.00,-1.60"/>
    </edge>

    <junction id="J0" type="dead_end" x="0.00" y="100.00" incLanes="-E0_0 -E0_1" intLanes="" shape="0.00,100.00 6.40,100.00 0.00,100.00"/>
    <junction id="J1" type="priority" x="0.00" y="0.00" incLanes="E0_0 E0_1 -E2_0 -E2_1 -E7_0 -E7_1 -E3_0 -E3_1 -E6_0 -E6_1 -E1_0 -E1_1 -E5_0 -E5_1 -E4_0 -E4_1" intLanes=":J1_0_0 :J1_1_0 :J1_2_0 :J1_3_0 :J1_56_0 :J1_57_0 :J1_58_0 :J1_7_0 :J1_8_0 :J1_9_0 :J1_10_0 :J1_11_0 :J1_12_0 :J1_13_0 :J1_14_0 :J1_15_0 :J1_16_0 :J1_17_0 :J1_18_0 :J1_19_0 :J1_20_0 :J1_21_0 :J1_22_0 :J1_23_0 :J1_24_0 :J1_25_0 :J1_26_0 :J1_27_0 :J1_28_0 :J1_29_0 :J1_30_0 :J1_31_0 :J1_59_0 :J1_60_0 :J1_61_0 :J1_35_0 :J1_36_0 :J1_37_0 :J1_38_0 :J1_39_0 :J1_40_0 :J1_41_0 :J1_42_0 :J1_43_0 :J1_44_0 :J1_45_0 :J1_46_0 :J1_47_0 :J1_48_0 :J1_49_0 :J1_50_0 :J1_51_0 :J1_52_0 :J1_53_0 :J1_54_0 :J1_55_0" shape="-6.40,19.45 6.40,19.45 6.71,17.54 7.11,17.16 7.66,17.15 8.36,17.53 9.23,18.28 18.28,9.23 17.15,7.66 17.16,7.11 17.54,6.71 18.31,6.48 19.45,6.40 19.45,-6.40 17.54,-6.71 17.16,-7.11 17.15,-7.66 17.53,-8.36 18.28,-9.23 9.23,-18.28 7.66,-17.15 7.11,-17.16 6.71,-17.54 6.48,-18.31 6.40,-19.45 -6.40,-19.45 -6.71,-17.54 -7.11,-17.16 -7.66,-17.15 -8.36,-17.53 -9.23,-18.28 -18.28,-9.23 -17.15,-7.66 -17.16,-7.11 -17.54,-6.71 -18.31,-6.48 -19.45,-6.40 -19.45,6.40 -17.54,6.71 -17.16,7.11 -17.15,7.66 -17.53,8.36 -18.28,9.23 -9.23,18.28 -7.66,17.15 -7.11,17.16 -6.71,17.54 -6.48,18.31">
        <request index="0"  response="00000000000000000000000000000000000000000000000000000000" foes="00000001000000010000000100000001000000010000000100000000" cont="0"/>
        <request index="1"  response="00000000000000000000000000000000000000000000000000000000" foes="11111111000000110000001100000011000000110000001100000000" cont="0"/>
        <request index="2"  response="00000000000000000000000000000000000000000000000000000000" foes="11111100111111110000011100000111000001110000011100000000" cont="0"/>
        <request index="3"  response="00000000000000000000000000000000000000000000000000000000" foes="11111000111110001111111100001111000011110000111100000000" cont="0"/>
        <request index="4"  response="00000000000000000000000011110000000000000000000000000000" foes="11110000111100001111000011111111000111110001111100000000" cont="1"/>
        <request index="5"  response="00000000000000000000000011100000000000000000000000000000" foes="11100000111000001110000011100000111111110011111100000000" cont="1"/>
        <request index="6"  response="00000000000000000000000011000000000000000000000000000000" foes="11000000110000001100000011000000110000001111111100000000" cont="1"/>
        <request index="7"  response="00000000000000000000000010000000000000000000000000000000" foes="10000000100000001000000010000000100000001000000000000000" cont="0"/>
        <request index="8"  response="00000000000000000000000110000001000000000000000001111111" foes="10000001100000011000000110000001100000011000000001111111" cont="0"/>
        <request index="9"  response="01111110000000000000001110000001000000100000000001111110" foes="01111111100000111000001110000011100000111000000001111110" cont="0"/>
        <request index="10" response="00010000001000000000011110000000000000000000000001111100" foes="01111100011111111000011110000111100001111000000001111100" cont="0"/>
        <request index="11" response="01111000011110000111111110000001000000100000000001111000" foes="01111000011110000111111110001111100011111000000001111000" cont="0"/>
        <request index="12" response="01110000011100000111000001110001000000100000000001110000" foes="01110000011100000111000001111111100111111000000001110000" cont="0"/>
        <request index="13" response="01100000011000000110000001100000011000100000000001100000" foes="01100000011000000110000001100000011111111000000001100000" cont="0"/>
        <request index="14" response="00000000000000000100000001000000000000000000000001000000" foes="01000000010000000100000001000000010000000000000001000000" cont="0"/>
        <request index="15" response="00000000000000000100000011000000000000000011111111000000" foes="11000000110000001100000011000000110000000011111111000000" cont="0"/>
        <request index="16" response="00000000000000000100000111000001000000000011111100111111" foes="11000001110000011100000111000001110000000011111100111111" cont="0"/>
        <request index="17" response="00010000000000000000001111000000000000000000010000111110" foes="00111111110000111100001111000011110000000011111000111110" cont="0"/>
        <request index="18" response="00111100001111000100011111000001000000000011110000111100" foes="00111100001111111100011111000111110000000011110000111100" cont="0"/>
        <request index="19" response="00111000001110000011111111000001000000000011100000111000" foes="00111000001110000011111111001111110000000011100000111000" cont="0"/>
        <request index="20" response="00110000001100000011000000110001000000000011000000110000" foes="00110000001100000011000000111111110000000011000000110000" cont="0"/>
        <request index="21" response="00000000001000000000000000100000000000000000000000100000" foes="00100000001000000010000000100000000000000010000000100000" cont="0"/>
        <request index="22" response="00000000001000000100000001100000000111111100000001100000" foes="01100000011000000110000001100000000111111110000001100000" cont="0"/>
        <request index="23" response="00000000001000000100000011100000000111111001111111100000" foes="11100000111000001110000011100000000111111001111111100000" cont="0"/>
        <request index="24" response="00000000000000000000000111100000000000100000010000011111" foes="11100001111000011110000111100000000111110001111100011111" cont="0"/>
        <request index="25" response="00011110001000000100001111100000000111100001111000011110" foes="00011111111000111110001111100000000111100001111000011110" cont="0"/>
        <request index="26" response="00011100000111000100011111100000000111000001110000011100" foes="00011100000111111110011111100000000111000001110000011100" cont="0"/>
        <request index="27" response="00011000000110000001111111100000000110000001100000011000" foes="00011000000110000001111111100000000110000001100000011000" cont="0"/>
        <request index="28" response="00000000000000000000000000000000000000000000000000000000" foes="00010000000100000001000000000000000100000001000000010000" cont="0"/>
        <request index="29" response="00000000000000000000000000000000000000000000000000000000" foes="00110000001100000011000000001111111100000011000000110000" cont="0"/>
        <request index="30" response="00000000000000000000000000000000000000000000000000000000" foes="01110000011100000111000000001111110011111111000001110000" cont="0"/>
        <request index="31" response="00000000000000000000000000000000000000000000000000000000" foes="11110000111100001111000000001111100011111000111111110000" cont="0"/>
        <request index="32" response="00000000000000000000000000000000000000000000000000001111" foes="11110001111100011111000000001111000011110000111100001111" cont="1"/>
        <request index="33" response="00000000000000000000000000000000000000000000000000001110" foes="00001111111100111111000000001110000011100000111000001110" cont="1"/>
        <request index="34" response="00000000000000000000000000000000000000000000000000001100" foes="00001100000011111111000000001100000011000000110000001100" cont="1"/>
        <request index="35" response="00000000000000000000000000000000000000000000000000001000" foes="00001000000010000000000000001000000010000000100000001000" cont="0"/>
        <request index="36" response="00010000000000000000011111110000000000000000000000011000" foes="00011000000110000000011111111000000110000001100000011000" cont="0"/>
        <request index="37" response="00010000001000000000011111100111111000000000000000111000" foes="00111000001110000000011111100111111110000011100000111000" cont="0"/>
        <request index="38" response="00000000000000000000011111000001000000100000000001111000" foes="01111000011110000000011111000111110001111111100001111000" cont="0"/>
        <request index="39" response="00010000001000000000011110000111100001111000011111111000" foes="11111000111110000000011110000111100001111000011111111000" cont="0"/>
        <request index="40" response="00010000001000000000011100000111000001110000011100000111" foes="11111001111110000000011100000111000001110000011100000111" cont="0"/>
        <request index="41" response="00000110001000000000011000000110000001100000011000000110" foes="00000111111110000000011000000110000001100000011000000110" cont="0"/>
        <request index="42" response="00000000000000000000010000000000000000000000010000000100" foes="00000100000000000000010000000100000001000000010000000100" cont="0"/>
        <request index="43" response="00000000000000111111110000000000000000000000010000001100" foes="00001100000000111111110000001100000011000000110000001100" cont="0"/>
        <request index="44" response="00010000000000111111001111110000000000000000010000011100" foes="00011100000000111111001111111100000111000001110000011100" cont="0"/>
        <request index="45" response="00000000000000000100001111100001000000000000000000111100" foes="00111100000000111110001111100011111111000011110000111100" cont="0"/>
        <request index="46" response="00010000000000111100001111000011110000111100010001111100" foes="01111100000000111100001111000011110000111111110001111100" cont="0"/>
        <request index="47" response="00010000000000111000001110000011100000111000001111111100" foes="11111100000000111000001110000011100000111000001111111100" cont="0"/>
        <request index="48" response="00010000000000110000001100000011000000110000001100000011" foes="11111100000000110000001100000011000000110000001100000011" cont="0"/>
        <request index="49" response="00000000000000000000001000000000000000100000000000000010" foes="00000000000000100000001000000010000000100000001000000010" cont="0"/>
        <request index="50" response="00000001111111000000011000000000000000100000010000000110" foes="00000001111111100000011000000110000001100000011000000110" cont="0"/>
        <request index="51" response="00000001111110011111111000000000000000100000010000001110" foes="00000001111110011111111000001110000011100000111000001110" cont="0"/>
        <request index="52" response="00000000001000000100000111110000000000000000000000011110" foes="00000001111100011111000111111110000111100001111000011110" cont="0"/>
        <request index="53" response="00000001111000011110000111100001111000100000010000111110" foes="00000001111000011110000111100001111111100011111000111110" cont="0"/>
        <request index="54" response="00000001110000011100000111000001110000011100010001111110" foes="00000001110000011100000111000001110000011111111001111110" cont="0"/>
        <request index="55" response="00000001100000011000000110000001100000011000000111111110" foes="00000001100000011000000110000001100000011000000111111110" cont="0"/>
    </junction>
    <junction id="J2" type="dead_end" x="-80.00" y="-80.00" incLanes="E1_0 E1_1" intLanes="" shape="-80.00,-80.00 -84.53,-75.47 -80.00,-80.00"/>
    <junction id="J3" type="dead_end" x="80.00" y="80.00" incLanes="E2_0 E2_1" intLanes="" shape="80.00,80.00 84.53,75.47 80.00,80.00"/>
    <junction id="J4" type="dead_end" x="80.00" y="-80.00" incLanes="E3_0 E3_1" intLanes="" shape="80.00,-80.00 75.47,-84.53 80.00,-80.00"/>
    <junction id="J5" type="dead_end" x="-80.00" y="80.00" incLanes="E4_0 E4_1" intLanes="" shape="-80.00,80.00 -75.47,84.53 -80.00,80.00"/>
    <junction id="J6" type="dead_end" x="-100.00" y="0.00" incLanes="E5_0 E5_1" intLanes="" shape="-100.00,0.00 -100.00,6.40 -100.00,0.00"/>
    <junction id="J7" type="dead_end" x="0.00" y="-100.00" incLanes="E6_0 E6_1" intLanes="" shape="0.00,-100.00 -6.40,-100.00 0.00,-100.00"/>
    <junction id="J8" type="dead_end" x="100.00" y="0.00" incLanes="E7_0 E7_1" intLanes="" shape="100.00,0.00 100.00,-6.40 100.00,0.00"/>

    <junction id=":J1_56_0" type="internal" x="-0.90" y="11.78" incLanes=":J1_4_0 -E6_1" intLanes=":J1_8_0 :J1_9_0 :J1_10_0 :J1_11_0 :J1_12_0 :J1_16_0 :J1_17_0 :J1_18_0 :J1_19_0 :J1_20_0 :J1_24_0 :J1_25_0 :J1_26_0 :J1_27_0 :J1_28_0 :J1_29_0 :J1_30_0 :J1_31_0 :J1_36_0 :J1_37_0 :J1_38_0 :J1_39_0 :J1_44_0 :J1_45_0 :J1_46_0 :J1_47_0 :J1_52_0 :J1_53_0 :J1_54_0 :J1_55_0"/>
    <junction id=":J1_57_0" type="internal" x="-0.89" y="14.49" incLanes=":J1_5_0 -E6_1" intLanes=":J1_8_0 :J1_9_0 :J1_10_0 :J1_11_0 :J1_12_0 :J1_13_0 :J1_16_0 :J1_17_0 :J1_18_0 :J1_19_0 :J1_20_0 :J1_21_0 :J1_22_0 :J1_23_0 :J1_29_0 :J1_30_0 :J1_31_0 :J1_37_0 :J1_38_0 :J1_39_0 :J1_45_0 :J1_46_0 :J1_47_0 :J1_53_0 :J1_54_0 :J1_55_0"/>