<?xml version="1.0" encoding="UTF-8"?>

<!-- generated on 2022-08-23 14:13:09 by Eclipse SUMO netedit Version 1.14.1
<configuration xmlns:xsi="http://www.w3.org/2001/XMLSchema-instance" xsi:noNamespaceSchemaLocation="http://sumo.dlr.de/xsd/netconvertConfiguration.xsd">

    <input>
        <sumo-net-file value="D:\Document\CodeFile\python\WebsterTimingMethod\Resource\MAP\cross_web\sumocfg_web\../cross.net.xml"/>
    </input>

    <output>
        <output-file value="D:\Document\CodeFile\python\WebsterTimingMethod\Resource\MAP\cross_web\sumocfg_web\../cross.net.xml"/>
    </output>

    <processing>
        <geometry.min-radius.fix.railways value="false"/>
        <geometry.max-grade.fix value="false"/>
        <offset.disable-normalization value="true"/>
        <lefthand value="false"/>
    </processing>

    <junctions>
        <no-turnarounds value="true"/>
        <junctions.corner-detail value="5"/>
        <junctions.limit-turn-speed value="5.5"/>
        <rectangular-lane-cut value="false"/>
    </junctions>

    <pedestrian>
        <walkingareas value="false"/>
    </pedestrian>

</configuration>
-->

<net version="1.9" junctionCornerDetail="5" limitTurnSpeed="5.50" xmlns:xsi="http://www.w3.org/2001/XMLSchema-instance" xsi:noNamespaceSchemaLocation="http://sumo.dlr.de/xsd/net_file.xsd">

    <location netOffset="0.00,0.00" convBoundary="-200.00,-200.00,200.00,200.00" origBoundary="-10000000000.00,-10000000000.00,10000000000.00,10000000000.00" projParameter="!"/>

    <edge id=":J5_0" function="internal">
        <lane id=":J5_0_0" index="0" speed="6.51" length="9.03" shape="-8.00,13.60 -8.35,11.15 -9.40,9.40 -11.15,8.35 -13.60,8.00"/>
    </edge>
    <edge id=":J5_1" function="internal">
        <lane id=":J5_1_0" index="0" speed="13.89" length="27.20" shape="-8.00,13.60 -8.00,-13.60"/>
        <lane id=":J5_1_1" index="1" speed="13.89" length="27.20" shape="-4.80,13.60 -4.80,-13.60"/>
        <lane id=":J5_1_2" index="2" speed="13.89" length="27.20" shape="-1.60,13.60 -1.60,-13.60"/>
    </edge>
    <edge id=":J5_4" function="internal">
        <lane id=":J5_4_0" index="0" speed="10.36" length="24.51" shape="-1.60,13.60 -0.65,6.95 2.20,2.20 6.95,-0.65 13.60,-1.60"/>
    </edge>
    <edge id=":J5_5" function="internal">
        <lane id=":J5_5_0" index="0" speed="6.51" length="9.03" shape="13.60,8.00 11.15,8.35 9.40,9.40 8.35,11.15 8.00,13.60"/>
    </edge>
    <edge id=":J5_6" function="internal">
        <lane id=":J5_6_0" index="0" speed="13.89" length="27.20" shape="13.60,8.00 -13.60,8.00"/>
        <lane id=":J5_6_1" index="1" speed="13.89" length="27.20" shape="13.60,4.80 -13.60,4.80"/>
        <lane id=":J5_6_2" index="2" speed="13.89" length="27.20" shape="13.60,1.60 -13.60,1.60"/>
    </edge>
    <edge id=":J5_9" function="internal">
        <lane id=":J5_9_0" index="0" speed="10.36" length="24.51" shape="13.60,1.60 6.95,0.65 2.20,-2.20 -0.65,-6.95 -1.60,-13.60"/>
    </edge>
    <edge id=":J5_10" function="internal">
        <lane id=":J5_10_0" index="0" speed="6.51" length="9.03" shape="8.00,-13.60 8.35,-11.15 9.40,-9.40 11.15,-8.35 13.60,-8.00"/>
    </edge>
    <edge id=":J5_11" function="internal">
        <lane id=":J5_11_0" index="0" speed="13.89" length="27.20" shape="8.00,-13.60 8.00,13.60"/>
        <lane id=":J5_11_1" index="1" speed="13.89" length="27.20" shape="4.80,-13.60 4.80,13.60"/>
        <lane id=":J5_11_2" index="2" speed="13.89" length="27.20" shape="1.60,-13.60 1.60,13.60"/>
    </edge>
    <edge id=":J5_14" function="internal">
        <lane id=":J5_14_0" index="0" speed="10.36" length="24.51" shape="1.60,-13.60 0.65,-6.95 -2.20,-2.20 -6.95,0.65 -13.60,1.60"/>
    </edge>
    <edge id=":J5_15" function="internal">
        <lane id=":J5_15_0" index="0" speed="6.51" length="9.03" shape="-13.60,-8.00 -11.15,-8.35 -9.40,-9.40 -8.35,-11.15 -8.00,-13.60"/>
    </edge>
    <edge id=":J5_16" function="internal">
        <lane id=":J5_16_0" index="0" speed="13.89" length="27.20" shape="-13.60,-8.00 13.60,-8.00"/>
        <lane id=":J5_16_1" index="1" speed="13.89" length="27.20" shape="-13.60,-4.80 13.60,-4.80"/>
        <lane id=":J5_16_2" index="2" speed="13.89" length="27.20" shape="-13.60,-1.60 13.60,-1.60"/>
    </edge>
    <edge id=":J5_19" function="internal">
        <lane id=":J5_19_0" index="0" speed="10.36" length="24.51" shape="-13.60,-1.60 -6.95,-0.65 -2.20,2.20 0.65,6.95 1.60,13.60"/>
    </edge>

    <edge id="-E1" from="J5" to="J1" priority="-1">
        <lane id="-E1_0" index="0" speed="13.89" length="186.40" shape="-13.60,8.00 -200.00,8.00"/>
        <lane id="-E1_1" index="1" speed="13.89" length="186.40" shape="-13.60,4.80 -200.00,4.80"/>
        <lane id="-E1_2" index="2" speed="13.89" length="186.40" shape="-13.60,1.60 -200.00,1.60"/>
    </edge>
    <edge id="-E2" from="J3" to="J5" priority="-1">
        <lane id="-E2_0" index="0" speed="13.89" length="186.40" shape="200.00,8.00 13.60,8.00"/>
        <lane id="-E2_1" index="1" speed="13.89" length="186.40" shape="200.00,4.80 13.60,4.80"/>
        <lane id="-E2_2" index="2" speed="13.89" length="186.40" shape="200.00,1.60 13.60,1.60"/>
    </edge>
    <edge id="-E3" from="J2" to="J5" priority="-1">
        <lane id="-E3_0" index="0" speed="13.89" length="186.40" shape="-8.00,200.00 -8.00,13.60"/>
        <lane id="-E3_1" index="1" speed="13.89" length="186.40" shape="-4.80,200.00 -4.80,13.60"/>
        <lane id="-E3_2" index="2" speed="13.89" length="186.40" shape="-1.60,200.00 -1.60,13.60"/>
    </edge>
    <edge id="-E4" from="J4" to="J5" priority="-1">
        <lane id="-E4_0" index="0" speed="13.89" length="186.40" shape="8.00,-200.00 8.00,-13.60"/>
        <lane id="-E4_1" index="1" speed="13.89" length="186.40" shape="4.80,-200.00 4.80,-13.60"/>
        <lane id="-E4_2" index="2" speed="13.89" length="186.40" shape="1.60,-200.00 1.60,-13.60"/>
    </edge>
    <edge id="E1" from="J1" to="J5" priority="-1">
        <lane id="E1_0" index="0" speed="13.89" length="186.40" shape="-200.00,-8.00 -13.60,-8.00"/>
        <lane id="E1_1" index="1" speed="13.89" length="186.40" shape="-200.00,-4.80 -13.60,-4.80"/>
        <lane id="E1_2" index="2" speed="13.89" length="186.40" shape="-200.00,-1.60 -13.60,-1.60"/>
    </edge>
    <edge id="E2" from="J5" to="J3" priority="-1">
        <lane id="E2_0" index="0" speed="13.89" length="186.40" shape="13.60,-8.00 200.00,-8.00"/>
        <lane id="E2_1" index="1" speed="13.89" length="186.40" shape="13.60,-4.80 200.00,-4.80"/>
        <lane id="E2_2" index="2" speed="13.89" length="186.40" shape="13.60,-1.60 200.00,-1.60"/>
    </edge>
    <edge id="E3" from="J5" to="J2" priority="-1">
        <lane id="E3_0" index="0" speed="13.89" length="186.40" shape="8.00,13.60 8.00,200.00"/>
        <lane id="E3_1" index="1" speed="13.89" length="186.40" shape="4.80,13.60 4.80,200.00"/>
        <lane id="E3_2" index="2" speed="13.89" length="186.40" shape="1.60,13.60 1.60,200.00"/>
    </edge>
    <edge id="E4" from="J5" to="J4" priority="-1">
        <lane id="E4_0" index="0" speed="13.89" length="186.40" shape="-8.00,-13.60 -8.00,-200.00"/>
        <lane id="E4_1" index="1" speed="13.89" length="186.40" shape="-4.80,-13.60 -4.80,-200.00"/>
        <lane id="E4_2" index="2" speed="13.89" length="186.40" shape="-1.60,-13.60 -1.60,-200.00"/>
    </edge>

    <tlLogic id="J5" type="static" programID="0" offset="0">
        <phase duration="40" state="GGGGrsrrrrGGGGrsrrrr"/>
        <phase duration="3"  state="yyyyrsrrrryyyyrsrrrr"/>
        <phase duration="40" state="srrrrGGGGrsrrrrGGGGr"/>
        <phase duration="3"  state="srrrryyyyrsrrrryyyyr"/>
        <phase duration="20" state="srrrgsrrrrsrrrgsrrrr"/>
        <phase duration="3"  state="srrrysrrrrsrrrysrrrr"/>
        <phase duration="20" state="srrrrsrrrgsrrrrsrrrg"/>
        <phase duration="3"  state="srrrrsrrrysrrrrsrrry"/>
    </tlLogic>

    <junction id="J1" type="dead_end" x="-200.00" y="0.00" incLanes="-E1_0 -E1_1 -E1_2" intLanes="" shape="-200.00,0.00 -200.00,9.60 -200.00,0.00"/>
    <junction id="J2" type="dead_end" x="0.00" y="200.00" incLanes="E3_0 E3_1 E3_2" intLanes="" shape="0.00,200.00 9.60,200.00 0.00,200.00"/>
    <junction id="J3" type="dead_end" x="200.00" y="0.00" incLanes="E2_0 E2_1 E2_2" intLanes="" shape="200.00,0.00 200.00,-9.60 200.00,0.00"/>
    <junction id="J4" type="dead_end" x="0.00" y="-200.00" incLanes="E4_0 E4_1 E4_2" intLanes="" shape="0.00,-200.00 -9.60,-200.00 0.00,-200.00"/>
    <junction id="J5" type="traffic_light_right_on_red" x="0.00" y="0.00" incLanes="-E3_0 -E3_1 -E3_2 -E2_0 -E2_1 -E2_2 -E4_0 -E4_1 -E4_2 E1_0 E1_1 E1_2" intLanes=":J5_0_0 :J5_1_0 :J5_1_1 :J5_1_2 :J5_4_0 :J5_5_0 :J5_6_0 :J5_6_1 :J5_6_2 :J5_9_0 :J5_10_0 :J5_11_0 :J5_11_1 :J5_11_2 :J5_14_0 :J5_15_0 :J5_16_0 :J5_16_1 :J5_16_2 :J5_19_0" shape="-9.60,13.60 9.60,13.60 10.04,11.38 10.60,10.60 11.38,10.04 12.38,9.71 13.60,9.60 13.60,-9.60 11.38,-10.04 10.60,-10.60 10.04,-11.38 9.71,-12.38 9.60,-13.60 -9.60,-13.60 -10.04,-11.38 -10.60,-10.60 -11.38,-10.04 -12.38,-9.71 -13.60,-9.60 -13.60,9.60 -11.38,10.04 -10.60,10.60 -10.04,11.38 -9.71,12.38" fringe="outer">
        <request index="0"  response="00000100000111000000" foes="00000000000111000000" cont="0"/>
        <request index="1"  response="00000000000000000000" foes="11111100001111000000" cont="0"/>
        <request index="2"  response="00000000000000000000" foes="11111100001111000000" cont="0"/>
        <request index="3"  response="00000000000000000000" foes="11111100001111000000" cont="0"/>
        <request index="4"  response="00000011100000000000" foes="11110011101111000000" cont="0"/>
        <request index="5"  response="10000011100000000000" foes="00000011100000000000" cont="0"/>
        <request index="6"  response="00000111100000011111" foes="10000111100000011111" cont="0"/>
        <request index="7"  response="00000111100000011111" foes="10000111100000011111" cont="0"/>
        <request index="8"  response="00000111100000011111" foes="10000111100000011111" cont="0"/>
        <request index="9"  response="01110111100000011110" foes="01110111100000011110" cont="0"/>
        <request index="10" response="01110000000000010000" foes="01110000000000000000" cont="0"/>
        <request index="11" response="00000000000000000000" foes="11110000001111110000" cont="0"/>
        <request index="12" response="00000000000000000000" foes="11110000001111110000" cont="0"/>
        <request index="13" response="00000000000000000000" foes="11110000001111110000" cont="0"/>
        <request index="14" response="00000000000000001110" foes="11110000001111001110" cont="0"/>
        <request index="15" response="00000000001000001110" foes="00000000000000001110" cont="0"/>
        <request index="16" response="00000111110000011110" foes="00000111111000011110" cont="0"/>
        <request index="17" response="00000111110000011110" foes="00000111111000011110" cont="0"/>
        <request index="18" response="00000111110000011110" foes="00000111111000011110" cont="0"/>
        <request index="19" response="00000111100111011110" foes="00000111100111011110" cont="0"/>
    </junction>

    <connection from="-E2" to="E3" fromLane="0" toLane="0" via=":J5_5_0" tl="J5" linkIndex="5" dir="r" state="o"/>
    <connection from="-E2" to="-E1" fromLane="0" toLane="0" via=":J5_6_0" tl="J5" linkIndex="6" dir="s" state="o"/>
    <connection from="-E2" to="-E1" fromLane="1" toLane="1" via=":J5_6_1" tl="J5" linkIndex="7" dir="s" state="o"/>
    <connection from="-E2" to="-E1" fromLane="2" toLane="2" via=":J5_6_2" tl="J5" linkIndex="8" dir="s" state="o"/>
    <connection from="-E2" to="E4" fromLane="2" toLane="2" via=":J5_9_0" tl="J5" linkIndex="9" dir="l" state="o"/>
    <connection from="-E3" to="-E1" fromLane="0" toLane="0" via=":J5_0_0" tl="J5" linkIndex="0" dir="r" state="O"/>
    <connection from="-E3" to="E4" fromLane="0" toLane="0" via=":J5_1_0" tl="J5" linkIndex="1" dir="s" state="O"/>
    <connection from="-E3" to="E4" fromLane="1" toLane="1" via=":J5_1_1" tl="J5" linkIndex="2" dir="s" state="O"/>
    <connection from="-E3" to="E4" fromLane="2" toLane="2" via=":J5_1_2" tl="J5" linkIndex="3" dir="s" state="O"/>
    <connection from="-E3" to="E2" fromLane="2" toLane="2" via=":J5_4_0" tl="J5" linkIndex="4" dir="l" state="o"/>
    <connection from="-E4" to="E2" fromLane="0" toLane="0" via=":J5_10_0" tl="J5" linkIndex="10" dir="r" state="O"/>
    <connection from="-E4" to="E3" fromLane="0" toLane="0" via=":J5_11_0" tl="J5" linkIndex="11" dir="s" state="O"/>
    <connection from="-E4" to="E3" fromLane="1" toLane="1" via=":J5_11_1" tl="J5" linkIndex="12" dir="s" state="O"/>
    <connection from="-E4" to="E3" fromLane="2" toLane="2" via=":J5_11_2" tl="J5" linkIndex="13" dir="s" state="O"/>
    <connection from="-E4" to="-E1" fromLane="2" toLane="2" via=":J5_14_0" tl="J5" linkIndex="14" dir="l" state="o"/>
    <connection from="E1" to="E4" fromLane="0" toLane="0" via=":J5_15_0" tl="J5" linkIndex="15" dir="r" state="o"/>
    <connection from="E1" to="E2" fromLane="0" toLane="0" via=":J5_16_0" tl="J5" linkIndex="16" dir="s" state="o"/>
    <connection from="E1" to="E2" fromLane="1" toLane="1" via=":J5_16_1" tl="J5" linkIndex="17" dir="s" state="o"/>
    <connection from="E1" to="E2" fromLane="2" toLane="2" via=":J5_16_2" tl="J5" linkIndex="18" dir="s" state="o"/>
    <connection from="E1" to="E3" fromLane="2" toLane="2" via=":J5_19_0" tl="J5" linkIndex="19" dir="l" state="o"/>

    <connection from=":J5_0" to="-E1" fromLane="0" toLane="0" dir="r" state="M"/>
    <connection from=":J5_1" to="E4" fromLane="0" toLane="0" dir="s" state="M"/>
    <connection from=":J5_1" to="E4" fromLane="1" toLane="1" dir="s" state="M"/>
    <connection from=":J5_1" to="E4" fromLane="2" toLane="2" dir="s" state="M"/>
    <connection from=":J5_4" to="E2" fromLane="0" toLane="2" dir="l" state="M"/>
    <connection from=":J5_5" to="E3" fromLane="0" toLane="0" dir="r" state="M"/>
    <connection from=":J5_6" to="-E1" fromLane="0" toLane="0" dir="s" state="M"/>
    <connection from=":J5_6" to="-E1" fromLane="1" toLane="1" dir="s" state="M"/>
    <connection from=":J5_6" to="-E1" fromLane="2" toLane="2" dir="s" state="M"/>
    <connection from=":J5_9" to="E4" fromLane="0" toLane="2" dir="l" state="M"/>
    <connection from=":J5_10" to="E2" fromLane="0" toLane="0" dir="r" state="M"/>
    <connection from=":J5_11" to="E3" fromLane="0" toLane="0" dir="s" state="M"/>
    <connection from=":J5_11" to="E3" fromLane="1" toLane="1" dir="s" state="M"/>
    <connection from=":J5_11" to="E3" fromLane="2" toLane="2" dir="s" state="M"/>
    <connection from=":J5_14" to="-E1" fromLane="0" toLane="2" dir="l" state="M"/>
    <connection from=":J5_15" to="E4" fromLane="0" toLane="0" dir="r" state="M"/>
    <connection from=":J5_16" to="E2" fromLane="0" toLane="0" dir="s" state="M"/>
    <connection from=":J5_16" to="E2" fromLane="1" toLane="1" dir="s" state="M"/>
    <connection from=":J5_16" to="E2" fromLane="2" toLane="2" dir="s" state="M"/>
    <connection from=":J5_19" to="E3" fromLane="0" toLane="2" dir="l" state="M"/>

</net>
