<?xml version="1.0" encoding="UTF-8"?>

<!-- generated on 2022-08-23 11:18:18 by Eclipse SUMO netedit Version 1.14.1
<configuration xmlns:xsi="http://www.w3.org/2001/XMLSchema-instance" xsi:noNamespaceSchemaLocation="http://sumo.dlr.de/xsd/netconvertConfiguration.xsd">

    <input>
        <sumo-net-file value="D:\Document\CodeFile\python\WebsterTimingMethod\Resource\MAP\cross_web\sumocfg_web\../cross.net.xml"/>
    </input>

    <output>
        <output-file value="D:\Document\CodeFile\python\WebsterTimingMethod\Resource\MAP\cross_web\sumocfg_web\../cross.net.xml"/>
    </output>

    <processing>
        <geometry.min-radius.fix.railways value="false"/>
        <geometry.max-grade.fix value="false"/>
        <offset.disable-normalization value="true"/>
        <lefthand value="false"/>
    </processing>

    <junctions>
        <no-turnarounds value="true"/>
        <junctions.corner-detail value="5"/>
        <junctions.limit-turn-speed value="5.5"/>
        <rectangular-lane-cut value="false"/>
    </junctions>

    <pedestrian>
        <walkingareas value="false"/>
    </pedestrian>

</configuration>
-->

<additional xmlns:xsi="http://www.w3.org/2001/XMLSchema-instance" xsi:noNamespaceSchemaLocation="http://sumo.dlr.de/xsd/additional_file.xsd">
    <tlLogic id="J5" type="static" programID="0" offset="0">
        <phase duration="42" state="GGGGgsrrrrGGGGgsrrrrr"/>
        <phase duration="3" state="yyyyysrrrryyyyysrrrrr"/>
        <phase duration="41" state="srrrrGGGGgsrrrrGGGGgg"/>
        <phase duration="3" state="srrrryyyyysrrrryyyyyy"/>
        <phase duration="1" state="srrrrrrrrrsrrrrrrrrrr"/>
    </tlLogic>
</additional>
